Circuit: *

Direct Newton iteration for .op point succeeded.
Semiconductor Device Operating Points:
                        --- Diodes ---
Name:      d1
Model:      d
Id:      4.97e-03
Vd:      6.97e-01
Req:     5.21e+00
CAP:     0.00e+00


Operating Bias Point Solution:
V(n001)            150.348   voltage
V(n002)            50.3483   voltage
V(n003)           0.696567   voltage
I(D1)         0.00496538   device_current
I(I1)               0.01   device_current
I(R3)         0.00496517   device_current
I(R2)         0.00503483   device_current
I(R1)              -0.01   device_current


Date: Thu Jun 11 15:17:42 2020
Total elapsed time: 0.042 seconds.

tnom = 27
temp = 27
method = trap
totiter = 5
traniter = 0
tranpoints = 0
accept = 0
rejected = 0
matrix size = 3
fillins = 0
solver = Normal
Matrix Compiler1: 104 object code size
Matrix Compiler2:      16 opcodes
