Circuit: *

Direct Newton iteration for .op point succeeded.
Operating Bias Point Solution:
V(n005)            37.7476   voltage
V(n001)            47.7476   voltage
V(n002)            52.7476   voltage
V(n006)                  3   voltage
V(n003)            19.5825   voltage
V(n004)                 10   voltage
I(I1)               0.01   device_current
I(R5)        -0.00427476   device_current
I(R4)        -0.00142136   device_current
I(R3)       -0.000829126   device_current
I(R2)       -0.000829126   device_current
I(R1)        -0.00347476   device_current
I(V4)         0.00427476   device_current
I(V3)               0.01   device_current
I(V2)        -0.00652524   device_current
I(V1)        -0.00652524   device_current


Date: Thu Jun 11 14:29:36 2020
Total elapsed time: 0.013 seconds.

tnom = 27
temp = 27
method = trap
totiter = 3
traniter = 0
tranpoints = 0
accept = 0
rejected = 0
matrix size = 10
fillins = 3
solver = Normal
Matrix Compiler1: 400 object code size
Matrix Compiler2:      62 opcodes